Circuit: * C:\Users\win10\OneDrive\Masaüstü\ELM DOSYALARI\Elektronik-1\ac_to_dc_project.asc

Direct Newton iteration failed to find .op point.  (Use ".option noopiter" to skip.)
Starting Gmin stepping
Gmin = 10
Gmin = 1.07374
Gmin = 0.115292
Gmin = 0.0123794
Gmin = 0.00132923
Gmin = 0.000142725
Gmin = 1.5325e-05
Gmin = 1.6455e-06
Gmin = 1.76685e-07
Gmin = 1.89714e-08
Gmin = 2.03704e-09
Gmin = 2.18725e-10
Gmin = 2.34854e-11
Gmin = 2.52173e-12
Gmin = 2.70769e-13
Gmin = 0
Gmin stepping succeeded in finding the operating point.


Date: Sat Jun 29 23:11:38 2024
Total elapsed time: 0.131 seconds.

tnom = 27
temp = 27
method = modified trap
totiter = 4600
traniter = 4232
tranpoints = 1807
accept = 1570
rejected = 237
matrix size = 35
fillins = 26
solver = Normal
Avg thread counts: 1.6/2.5/2.5/1.6
Matrix Compiler1: 5.22 KB object code size  1.2/0.9/[0.5]
Matrix Compiler2: 3.75 KB object code size  0.4/0.7/[0.3]

